                                  MODFLOW-2005     
      U.S. GEOLOGICAL SURVEY MODULAR FINITE-DIFFERENCE GROUND-WATER FLOW MODEL
                            VERSION 1.12.00 2/3/2017

 LIST FILE: 2018.list
                         UNIT    2

 OPENING 2018.dis
 FILE TYPE:DIS   UNIT   11   STATUS:OLD    
 FORMAT:FORMATTED              ACCESS:SEQUENTIAL          

 OPENING 2018.bas
 FILE TYPE:BAS6   UNIT   13   STATUS:OLD    
 FORMAT:FORMATTED              ACCESS:SEQUENTIAL          

 OPENING 2018.bcf
 FILE TYPE:BCF6   UNIT   15   STATUS:OLD    
 FORMAT:FORMATTED              ACCESS:SEQUENTIAL          

 OPENING 2018.riv
 FILE TYPE:RIV   UNIT   18   STATUS:OLD    
 FORMAT:FORMATTED              ACCESS:SEQUENTIAL          

 OPENING 2018.rch
 FILE TYPE:RCH   UNIT   19   STATUS:OLD    
 FORMAT:FORMATTED              ACCESS:SEQUENTIAL          

 OPENING 2018.oc
 FILE TYPE:OC   UNIT   14   STATUS:OLD    
 FORMAT:FORMATTED              ACCESS:SEQUENTIAL          

 OPENING 2018.pcg
 FILE TYPE:PCG   UNIT   27   STATUS:OLD    
 FORMAT:FORMATTED              ACCESS:SEQUENTIAL          

 OPENING 2018.hds
 FILE TYPE:DATA(BINARY)   UNIT   51   STATUS:REPLACE
 FORMAT:BINARY                 ACCESS:SEQUENTIAL          

 BAS -- BASIC PACKAGE, VERSION 7, 5/2/2005 INPUT READ FROM UNIT   13
 
 MODFLOW was compiled using mixed precision
 Precision of REAL variables:           6
 Precision of DOUBLE PRECISION variables:          15

 DISCRETIZATION INPUT DATA READ FROM UNIT   11
 # DIS package for  MODFLOW-2005, generated by Flopy.
    2 LAYERS         1 ROWS      1000 COLUMNS
  298 STRESS PERIOD(S) IN SIMULATION
 MODEL TIME UNIT IS DAYS
 MODEL LENGTH UNIT IS METERS
  Confining bed flag for each layer:
   0   0

                     DELR =   1.00000    

                     DELC =   10.0000    

 TOP ELEVATION OF LAYER 1 =   5.00000    

   MODEL LAYER BOTTOM EL. =  -5.00000     FOR LAYER   1

   MODEL LAYER BOTTOM EL. =  -25.0000     FOR LAYER   2


 STRESS PERIOD     LENGTH       TIME STEPS     MULTIPLIER FOR DELT    SS FLAG
 ----------------------------------------------------------------------------
        1         1.000000          1                    1.000         SS
        2         1.000000          1                    1.000         TR
        3         1.000000          1                    1.000         TR
        4         1.000000          1                    1.000         TR
        5         1.000000          1                    1.000         TR
        6         1.000000          1                    1.000         TR
        7         1.000000          1                    1.000         TR
        8         1.000000          1                    1.000         TR
        9         1.000000          1                    1.000         TR
       10         1.000000          1                    1.000         TR
       11         1.000000          1                    1.000         TR
       12         1.000000          1                    1.000         TR
       13         1.000000          1                    1.000         TR
       14         1.000000          1                    1.000         TR
       15         1.000000          1                    1.000         TR
       16         1.000000          1                    1.000         TR
       17         1.000000          1                    1.000         TR
       18         1.000000          1                    1.000         TR
       19         1.000000          1                    1.000         TR
       20         1.000000          1                    1.000         TR
       21         1.000000          1                    1.000         TR
       22         1.000000          1                    1.000         TR
       23         1.000000          1                    1.000         TR
       24         1.000000          1                    1.000         TR
       25         1.000000          1                    1.000         TR
       26         1.000000          1                    1.000         TR
       27         1.000000          1                    1.000         TR
       28         1.000000          1                    1.000         TR
       29         1.000000          1                    1.000         TR
       30         1.000000          1                    1.000         TR
       31         1.000000          1                    1.000         TR
       32         1.000000          1                    1.000         TR
       33         1.000000          1                    1.000         TR
       34         1.000000          1                    1.000         TR
       35         1.000000          1                    1.000         TR
       36         1.000000          1                    1.000         TR
       37         1.000000          1                    1.000         TR
       38         1.000000          1                    1.000         TR
       39         1.000000          1                    1.000         TR
       40         1.000000          1                    1.000         TR
       41         1.000000          1                    1.000         TR
       42         1.000000          1                    1.000         TR
       43         1.000000          1                    1.000         TR
       44         1.000000          1                    1.000         TR
       45         1.000000          1                    1.000         TR
       46         1.000000          1                    1.000         TR
       47         1.000000          1                    1.000         TR
       48         1.000000          1                    1.000         TR
       49         1.000000          1                    1.000         TR
       50         1.000000          1                    1.000         TR
       51         1.000000          1                    1.000         TR
       52         1.000000          1                    1.000         TR
       53         1.000000          1                    1.000         TR
       54         1.000000          1                    1.000         TR
       55         1.000000          1                    1.000         TR
       56         1.000000          1                    1.000         TR
       57         1.000000          1                    1.000         TR
       58         1.000000          1                    1.000         TR
       59         1.000000          1                    1.000         TR
       60         1.000000          1                    1.000         TR
       61         1.000000          1                    1.000         TR
       62         1.000000          1                    1.000         TR
       63         1.000000          1                    1.000         TR
       64         1.000000          1                    1.000         TR
       65         1.000000          1                    1.000         TR
       66         1.000000          1                    1.000         TR
       67         1.000000          1                    1.000         TR
       68         1.000000          1                    1.000         TR
       69         1.000000          1                    1.000         TR
       70         1.000000          1                    1.000         TR
       71         1.000000          1                    1.000         TR
       72         1.000000          1                    1.000         TR
       73         1.000000          1                    1.000         TR
       74         1.000000          1                    1.000         TR
       75         1.000000          1                    1.000         TR
       76         1.000000          1                    1.000         TR
       77         1.000000          1                    1.000         TR
       78         1.000000          1                    1.000         TR
       79         1.000000          1                    1.000         TR
       80         1.000000          1                    1.000         TR
       81         1.000000          1                    1.000         TR
       82         1.000000          1                    1.000         TR
       83         1.000000          1                    1.000         TR
       84         1.000000          1                    1.000         TR
       85         1.000000          1                    1.000         TR
       86         1.000000          1                    1.000         TR
       87         1.000000          1                    1.000         TR
       88         1.000000          1                    1.000         TR
       89         1.000000          1                    1.000         TR
       90         1.000000          1                    1.000         TR
       91         1.000000          1                    1.000         TR
       92         1.000000          1                    1.000         TR
       93         1.000000          1                    1.000         TR
       94         1.000000          1                    1.000         TR
       95         1.000000          1                    1.000         TR
       96         1.000000          1                    1.000         TR
       97         1.000000          1                    1.000         TR
       98         1.000000          1                    1.000         TR
       99         1.000000          1                    1.000         TR
      100         1.000000          1                    1.000         TR
      101         1.000000          1                    1.000         TR
      102         1.000000          1                    1.000         TR
      103         1.000000          1                    1.000         TR
      104         1.000000          1                    1.000         TR
      105         1.000000          1                    1.000         TR
      106         1.000000          1                    1.000         TR
      107         1.000000          1                    1.000         TR
      108         1.000000          1                    1.000         TR
      109         1.000000          1                    1.000         TR
      110         1.000000          1                    1.000         TR
      111         1.000000          1                    1.000         TR
      112         1.000000          1                    1.000         TR
      113         1.000000          1                    1.000         TR
      114         1.000000          1                    1.000         TR
      115         1.000000          1                    1.000         TR
      116         1.000000          1                    1.000         TR
      117         1.000000          1                    1.000         TR
      118         1.000000          1                    1.000         TR
      119         1.000000          1                    1.000         TR
      120         1.000000          1                    1.000         TR
      121         1.000000          1                    1.000         TR
      122         1.000000          1                    1.000         TR
      123         1.000000          1                    1.000         TR
      124         1.000000          1                    1.000         TR
      125         1.000000          1                    1.000         TR
      126         1.000000          1                    1.000         TR
      127         1.000000          1                    1.000         TR
      128         1.000000          1                    1.000         TR
      129         1.000000          1                    1.000         TR
      130         1.000000          1                    1.000         TR
      131         1.000000          1                    1.000         TR
      132         1.000000          1                    1.000         TR
      133         1.000000          1                    1.000         TR
      134         1.000000          1                    1.000         TR
      135         1.000000          1                    1.000         TR
      136         1.000000          1                    1.000         TR
      137         1.000000          1                    1.000         TR
      138         1.000000          1                    1.000         TR
      139         1.000000          1                    1.000         TR
      140         1.000000          1                    1.000         TR
      141         1.000000          1                    1.000         TR
      142         1.000000          1                    1.000         TR
      143         1.000000          1                    1.000         TR
      144         1.000000          1                    1.000         TR
      145         1.000000          1                    1.000         TR
      146         1.000000          1                    1.000         TR
      147         1.000000          1                    1.000         TR
      148         1.000000          1                    1.000         TR
      149         1.000000          1                    1.000         TR
      150         1.000000          1                    1.000         TR
      151         1.000000          1                    1.000         TR
      152         1.000000          1                    1.000         TR
      153         1.000000          1                    1.000         TR
      154         1.000000          1                    1.000         TR
      155         1.000000          1                    1.000         TR
      156         1.000000          1                    1.000         TR
      157         1.000000          1                    1.000         TR
      158         1.000000          1                    1.000         TR
      159         1.000000          1                    1.000         TR
      160         1.000000          1                    1.000         TR
      161         1.000000          1                    1.000         TR
      162         1.000000          1                    1.000         TR
      163         1.000000          1                    1.000         TR
      164         1.000000          1                    1.000         TR
      165         1.000000          1                    1.000         TR
      166         1.000000          1                    1.000         TR
      167         1.000000          1                    1.000         TR
      168         1.000000          1                    1.000         TR
      169         1.000000          1                    1.000         TR
      170         1.000000          1                    1.000         TR
      171         1.000000          1                    1.000         TR
      172         1.000000          1                    1.000         TR
      173         1.000000          1                    1.000         TR
      174         1.000000          1                    1.000         TR
      175         1.000000          1                    1.000         TR
      176         1.000000          1                    1.000         TR
      177         1.000000          1                    1.000         TR
      178         1.000000          1                    1.000         TR
      179         1.000000          1                    1.000         TR
      180         1.000000          1                    1.000         TR
      181         1.000000          1                    1.000         TR
      182         1.000000          1                    1.000         TR
      183         1.000000          1                    1.000         TR
      184         1.000000          1                    1.000         TR
      185         1.000000          1                    1.000         TR
      186         1.000000          1                    1.000         TR
      187         1.000000          1                    1.000         TR
      188         1.000000          1                    1.000         TR
      189         1.000000          1                    1.000         TR
      190         1.000000          1                    1.000         TR
      191         1.000000          1                    1.000         TR
      192         1.000000          1                    1.000         TR
      193         1.000000          1                    1.000         TR
      194         1.000000          1                    1.000         TR
      195         1.000000          1                    1.000         TR
      196         1.000000          1                    1.000         TR
      197         1.000000          1                    1.000         TR
      198         1.000000          1                    1.000         TR
      199         1.000000          1                    1.000         TR
      200         1.000000          1                    1.000         TR
      201         1.000000          1                    1.000         TR
      202         1.000000          1                    1.000         TR
      203         1.000000          1                    1.000         TR
      204         1.000000          1                    1.000         TR
      205         1.000000          1                    1.000         TR
      206         1.000000          1                    1.000         TR
      207         1.000000          1                    1.000         TR
      208         1.000000          1                    1.000         TR
      209         1.000000          1                    1.000         TR
      210         1.000000          1                    1.000         TR
      211         1.000000          1                    1.000         TR
      212         1.000000          1                    1.000         TR
      213         1.000000          1                    1.000         TR
      214         1.000000          1                    1.000         TR
      215         1.000000          1                    1.000         TR
      216         1.000000          1                    1.000         TR
      217         1.000000          1                    1.000         TR
      218         1.000000          1                    1.000         TR
      219         1.000000          1                    1.000         TR
      220         1.000000          1                    1.000         TR
      221         1.000000          1                    1.000         TR
      222         1.000000          1                    1.000         TR
      223         1.000000          1                    1.000         TR
      224         1.000000          1                    1.000         TR
      225         1.000000          1                    1.000         TR
      226         1.000000          1                    1.000         TR
      227         1.000000          1                    1.000         TR
      228         1.000000          1                    1.000         TR
      229         1.000000          1                    1.000         TR
      230         1.000000          1                    1.000         TR
      231         1.000000          1                    1.000         TR
      232         1.000000          1                    1.000         TR
      233         1.000000          1                    1.000         TR
      234         1.000000          1                    1.000         TR
      235         1.000000          1                    1.000         TR
      236         1.000000          1                    1.000         TR
      237         1.000000          1                    1.000         TR
      238         1.000000          1                    1.000         TR
      239         1.000000          1                    1.000         TR
      240         1.000000          1                    1.000         TR
      241         1.000000          1                    1.000         TR
      242         1.000000          1                    1.000         TR
      243         1.000000          1                    1.000         TR
      244         1.000000          1                    1.000         TR
      245         1.000000          1                    1.000         TR
      246         1.000000          1                    1.000         TR
      247         1.000000          1                    1.000         TR
      248         1.000000          1                    1.000         TR
      249         1.000000          1                    1.000         TR
      250         1.000000          1                    1.000         TR
      251         1.000000          1                    1.000         TR
      252         1.000000          1                    1.000         TR
      253         1.000000          1                    1.000         TR
      254         1.000000          1                    1.000         TR
      255         1.000000          1                    1.000         TR
      256         1.000000          1                    1.000         TR
      257         1.000000          1                    1.000         TR
      258         1.000000          1                    1.000         TR
      259         1.000000          1                    1.000         TR
      260         1.000000          1                    1.000         TR
      261         1.000000          1                    1.000         TR
      262         1.000000          1                    1.000         TR
      263         1.000000          1                    1.000         TR
      264         1.000000          1                    1.000         TR
      265         1.000000          1                    1.000         TR
      266         1.000000          1                    1.000         TR
      267         1.000000          1                    1.000         TR
      268         1.000000          1                    1.000         TR
      269         1.000000          1                    1.000         TR
      270         1.000000          1                    1.000         TR
      271         1.000000          1                    1.000         TR
      272         1.000000          1                    1.000         TR
      273         1.000000          1                    1.000         TR
      274         1.000000          1                    1.000         TR
      275         1.000000          1                    1.000         TR
      276         1.000000          1                    1.000         TR
      277         1.000000          1                    1.000         TR
      278         1.000000          1                    1.000         TR
      279         1.000000          1                    1.000         TR
      280         1.000000          1                    1.000         TR
      281         1.000000          1                    1.000         TR
      282         1.000000          1                    1.000         TR
      283         1.000000          1                    1.000         TR
      284         1.000000          1                    1.000         TR
      285         1.000000          1                    1.000         TR
      286         1.000000          1                    1.000         TR
      287         1.000000          1                    1.000         TR
      288         1.000000          1                    1.000         TR
      289         1.000000          1                    1.000         TR
      290         1.000000          1                    1.000         TR
      291         1.000000          1                    1.000         TR
      292         1.000000          1                    1.000         TR
      293         1.000000          1                    1.000         TR
      294         1.000000          1                    1.000         TR
      295         1.000000          1                    1.000         TR
      296         1.000000          1                    1.000         TR
      297         1.000000          1                    1.000         TR
      298         1.000000          1                    1.000         TR

 COMBINED STEADY-STATE AND TRANSIENT SIMULATION



 
 # BAS6 package for  MODFLOW-2005, generated by Flopy.                           
 THE FREE FORMAT OPTION HAS BEEN SELECTED



                     BOUNDARY ARRAY FOR LAYER   1
 READING ON UNIT   13 WITH FORMAT: (1000I10)           



                     BOUNDARY ARRAY FOR LAYER   2
 READING ON UNIT   13 WITH FORMAT: (1000I10)           

 AQUIFER HEAD WILL BE SET TO  -999.99     AT ALL NO-FLOW NODES (IBOUND=0).

             INITIAL HEAD =   0.00000     FOR LAYER   1

             INITIAL HEAD =   0.00000     FOR LAYER   2
 # OC package for  MODFLOW-2005, generated by Flopy.

 OUTPUT CONTROL IS SPECIFIED ONLY AT TIME STEPS FOR WHICH OUTPUT IS DESIRED
 COMPACT CELL-BY-CELL BUDGET FILES WILL BE WRITTEN
 AUXILIARY DATA WILL BE SAVED IN CELL-BY-CELL BUDGET FILES
 HEAD PRINT FORMAT CODE IS   0    DRAWDOWN PRINT FORMAT CODE IS   0
 HEADS WILL BE SAVED ON UNIT   51    DRAWDOWNS WILL BE SAVED ON UNIT    0

 BCF -- BLOCK-CENTERED FLOW PACKAGE, VERSION 7, 5/2/2005
         INPUT READ FROM UNIT 15
 TRANSIENT SIMULATION
 HEAD AT CELLS THAT CONVERT TO DRY= -0.10000E+31
 WETTING CAPABILITY IS NOT ACTIVE
      LAYER  LAYER-TYPE CODE     INTERBLOCK T
      --------------------------------------------
         1            1          0 -- HARMONIC    
         2            3          0 -- HARMONIC    

 COLUMN TO ROW ANISOTROPY =   1.00000    

     PRIMARY STORAGE COEF =  0.150000     FOR LAYER   1

    HYD. COND. ALONG ROWS =   10.0000     FOR LAYER   1

 VERT HYD COND /THICKNESS =  1.000000E-04 FOR LAYER   1

     PRIMARY STORAGE COEF =  0.150000     FOR LAYER   2

    HYD. COND. ALONG ROWS =   10.0000     FOR LAYER   2

   SECONDARY STORAGE COEF =  0.150000     FOR LAYER   2

 RIV -- RIVER PACKAGE, VERSION 7, 5/2/2005 INPUT READ FROM UNIT   18
 # RIV package for  MODFLOW-2005, generated by Flopy.
 No named parameters
 MAXIMUM OF      2 ACTIVE RIVER REACHES AT ONE TIME


     0 River parameters

 RCH -- RECHARGE PACKAGE, VERSION 7, 5/2/2005 INPUT READ FROM UNIT   19
 # RCH package for  MODFLOW-2005, generated by Flopy.
 No named parameters
 OPTION 3 -- RECHARGE TO HIGHEST ACTIVE NODE IN EACH VERTICAL COLUMN


     0 Recharge parameters

 PCG -- CONJUGATE-GRADIENT SOLUTION PACKAGE, VERSION 7, 5/2/2005
 # PCG package for  MODFLOW-2005, generated by Flopy.
 MAXIMUM OF     50 CALLS OF SOLUTION ROUTINE
 MAXIMUM OF     30 INTERNAL ITERATIONS PER CALL TO SOLUTION ROUTINE
 MATRIX PRECONDITIONING TYPE :    1



                                    SOLUTION BY THE CONJUGATE-GRADIENT METHOD
                                   -------------------------------------------
                    MAXIMUM NUMBER OF CALLS TO PCG ROUTINE =       50
                        MAXIMUM ITERATIONS PER CALL TO PCG =       30
                               MATRIX PRECONDITIONING TYPE =        1
        RELAXATION FACTOR (ONLY USED WITH PRECOND. TYPE 1) =    0.10000E+01
 PARAMETER OF POLYNOMIAL PRECOND. = 2 (2) OR IS CALCULATED :        0
                         HEAD CHANGE CRITERION FOR CLOSURE =    0.10000E-04
                     RESIDUAL CHANGE CRITERION FOR CLOSURE =    0.10000E-04
            PCG HEAD AND RESIDUAL CHANGE PRINTOUT INTERVAL =      999
     PRINTING FROM SOLVER IS LIMITED(1) OR SUPPRESSED (>1) =        3
                            STEADY-STATE DAMPING PARAMETER =    0.10000E+01
                               TRANSIENT DAMPING PARAMETER =    0.10000E+01
1
                            STRESS PERIOD NO.    1, LENGTH =   1.000000    
                            -----------------------------------------------

                              NUMBER OF TIME STEPS =     1

                               MULTIPLIER FOR DELT =     1.000

                            INITIAL TIME STEP SIZE =   1.000000    

 REACH NO.  LAYER   ROW   COL     STAGE      CONDUCTANCE     BOTTOM EL.         
 -------------------------------------------------------------------------------
      1      1      1      1       3.000           100.0           2.000    
      2      1      1   1000       3.000           100.0           2.000    

      2 RIVER REACHES

                 RECHARGE =  7.000000E-04
 
 SOLVING FOR HEAD 

 OUTPUT CONTROL FOR STRESS PERIOD    1   TIME STEP    1
    SAVE HEAD FOR ALL LAYERS

 HEAD WILL BE SAVED ON UNIT   51 AT END OF TIME STEP    1, STRESS PERIOD    1
1
  VOLUMETRIC BUDGET FOR ENTIRE MODEL AT END OF TIME STEP    1, STRESS PERIOD   1
  ------------------------------------------------------------------------------

     CUMULATIVE VOLUMES      L**3       RATES FOR THIS TIME STEP      L**3/T
     ------------------                 ------------------------

           IN:                                      IN:
           ---                                      ---
             STORAGE =           0.0000               STORAGE =           0.0000
       CONSTANT HEAD =           0.0000         CONSTANT HEAD =           0.0000
       RIVER LEAKAGE =           0.0000         RIVER LEAKAGE =           0.0000
            RECHARGE =           7.0000              RECHARGE =           7.0000

            TOTAL IN =           7.0000              TOTAL IN =           7.0000

          OUT:                                     OUT:
          ----                                     ----
             STORAGE =           0.0000               STORAGE =           0.0000
       CONSTANT HEAD =           3.2546         CONSTANT HEAD =           3.2546
       RIVER LEAKAGE =           3.7454         RIVER LEAKAGE =           3.7454
            RECHARGE =           0.0000              RECHARGE =           0.0000

           TOTAL OUT =           7.0000             TOTAL OUT =           7.0000

            IN - OUT =       2.2888E-05              IN - OUT =       2.2888E-05

 PERCENT DISCREPANCY =           0.00     PERCENT DISCREPANCY =           0.00






         TIME SUMMARY AT END OF TIME STEP    1 IN STRESS PERIOD    1
                    SECONDS     MINUTES      HOURS       DAYS        YEARS
                    -----------------------------------------------------------
   TIME STEP LENGTH  86400.      1440.0      24.000      1.0000     2.73785E-03
 STRESS PERIOD TIME  86400.      1440.0      24.000      1.0000     2.73785E-03
         TOTAL TIME  86400.      1440.0      24.000      1.0000     2.73785E-03
1
1
                            STRESS PERIOD NO.    2, LENGTH =   1.000000    
                            -----------------------------------------------

                              NUMBER OF TIME STEPS =     1

                               MULTIPLIER FOR DELT =     1.000

                            INITIAL TIME STEP SIZE =   1.000000    

 REUSING NON-PARAMETER RIVER REACHES FROM LAST STRESS PERIOD

      2 RIVER REACHES

 REUSING RECH FROM LAST STRESS PERIOD
 
 SOLVING FOR HEAD 

 OUTPUT CONTROL FOR STRESS PERIOD    2   TIME STEP    1
    SAVE HEAD FOR ALL LAYERS

 HEAD WILL BE SAVED ON UNIT   51 AT END OF TIME STEP    1, STRESS PERIOD    2
1
  VOLUMETRIC BUDGET FOR ENTIRE MODEL AT END OF TIME STEP    1, STRESS PERIOD   2
  ------------------------------------------------------------------------------

     CUMULATIVE VOLUMES      L**3       RATES FOR THIS TIME STEP      L**3/T
     ------------------                 ------------------------

           IN:                                      IN:
           ---                                      ---
             STORAGE =       3.3617E-05               STORAGE =       3.3617E-05
       CONSTANT HEAD =           0.0000         CONSTANT HEAD =           0.0000
       RIVER LEAKAGE =           0.0000         RIVER LEAKAGE =           0.0000
            RECHARGE =          14.0000              RECHARGE =           7.0000

            TOTAL IN =          14.0000              TOTAL IN =           7.0000

          OUT:                                     OUT:
          ----                                     ----
             STORAGE =       6.9141E-06               STORAGE =       6.9141E-06
       CONSTANT HEAD =           6.5091         CONSTANT HEAD =           3.2546
       RIVER LEAKAGE =           7.4908         RIVER LEAKAGE =           3.7454
            RECHARGE =           0.0000              RECHARGE =           0.0000

           TOTAL OUT =          13.9999             TOTAL OUT =           7.0000

            IN - OUT =       9.1553E-05              IN - OUT =       6.9618E-05

 PERCENT DISCREPANCY =           0.00     PERCENT DISCREPANCY =           0.00






         TIME SUMMARY AT END OF TIME STEP    1 IN STRESS PERIOD    2
                    SECONDS     MINUTES      HOURS       DAYS        YEARS
                    -----------------------------------------------------------
   TIME STEP LENGTH  86400.      1440.0      24.000      1.0000     2.73785E-03
 STRESS PERIOD TIME  86400.      1440.0      24.000      1.0000     2.73785E-03
         TOTAL TIME 1.72800E+05  2880.0      48.000      2.0000     5.47570E-03
1
1
                            STRESS PERIOD NO.    3, LENGTH =   1.000000    
                            -----------------------------------------------

                              NUMBER OF TIME STEPS =     1

                               MULTIPLIER FOR DELT =     1.000

                            INITIAL TIME STEP SIZE =   1.000000    

 REUSING NON-PARAMETER RIVER REACHES FROM LAST STRESS PERIOD

      2 RIVER REACHES

                 RECHARGE =  3.920000E-02
 
 SOLVING FOR HEAD 

 OUTPUT CONTROL FOR STRESS PERIOD    3   TIME STEP    1
    SAVE HEAD FOR ALL LAYERS

 HEAD WILL BE SAVED ON UNIT   51 AT END OF TIME STEP    1, STRESS PERIOD    3
1
  VOLUMETRIC BUDGET FOR ENTIRE MODEL AT END OF TIME STEP    1, STRESS PERIOD   3
  ------------------------------------------------------------------------------

     CUMULATIVE VOLUMES      L**3       RATES FOR THIS TIME STEP      L**3/T
     ------------------                 ------------------------

           IN:                                      IN:
           ---                                      ---
             STORAGE =       3.3617E-05               STORAGE =           0.0000
       CONSTANT HEAD =           0.0000         CONSTANT HEAD =           0.0000
       RIVER LEAKAGE =           0.0000         RIVER LEAKAGE =           0.0000
            RECHARGE =         406.0000              RECHARGE =         392.0000

            TOTAL IN =         406.0001              TOTAL IN =         392.0000

          OUT:                                     OUT:
          ----                                     ----
             STORAGE =         371.4141               STORAGE =         371.4141
       CONSTANT HEAD =           9.7771         CONSTANT HEAD =           3.2680
       RIVER LEAKAGE =          24.8089         RIVER LEAKAGE =          17.3181
            RECHARGE =           0.0000              RECHARGE =           0.0000

           TOTAL OUT =         406.0001             TOTAL OUT =         392.0002

            IN - OUT =      -3.0518E-05              IN - OUT =      -1.5259E-04

 PERCENT DISCREPANCY =          -0.00     PERCENT DISCREPANCY =          -0.00






         TIME SUMMARY AT END OF TIME STEP    1 IN STRESS PERIOD    3
                    SECONDS     MINUTES      HOURS       DAYS        YEARS
                    -----------------------------------------------------------
   TIME STEP LENGTH  86400.      1440.0      24.000      1.0000     2.73785E-03
 STRESS PERIOD TIME  86400.      1440.0      24.000      1.0000     2.73785E-03
         TOTAL TIME 2.59200E+05  4320.0      72.000      3.0000     8.21355E-03
1
1
                            STRESS PERIOD NO.    4, LENGTH =   1.000000    
                            -----------------------------------------------

                              NUMBER OF TIME STEPS =     1

                               MULTIPLIER FOR DELT =     1.000

                            INITIAL TIME STEP SIZE =   1.000000    

 REUSING NON-PARAMETER RIVER REACHES FROM LAST STRESS PERIOD

      2 RIVER REACHES

                 RECHARGE =  4.400000E-03
 
 SOLVING FOR HEAD 

 OUTPUT CONTROL FOR STRESS PERIOD    4   TIME STEP    1
    SAVE HEAD FOR ALL LAYERS

 HEAD WILL BE SAVED ON UNIT   51 AT END OF TIME STEP    1, STRESS PERIOD    4
1
  VOLUMETRIC BUDGET FOR ENTIRE MODEL AT END OF TIME STEP    1, STRESS PERIOD   4
  ------------------------------------------------------------------------------

     CUMULATIVE VOLUMES      L**3       RATES FOR THIS TIME STEP      L**3/T
     ------------------                 ------------------------

           IN:                                      IN:
           ---                                      ---
             STORAGE =           3.1931               STORAGE =           3.1931
       CONSTANT HEAD =           0.0000         CONSTANT HEAD =           0.0000
       RIVER LEAKAGE =           0.0000         RIVER LEAKAGE =           0.0000
            RECHARGE =         450.0000              RECHARGE =          44.0000

            TOTAL IN =         453.1931              TOTAL IN =          47.1931

          OUT:                                     OUT:
          ----                                     ----
             STORAGE =         401.7939               STORAGE =          30.3799
       CONSTANT HEAD =          13.0523         CONSTANT HEAD =           3.2752
       RIVER LEAKAGE =          38.3471         RIVER LEAKAGE =          13.5381
            RECHARGE =           0.0000              RECHARGE =           0.0000

           TOTAL OUT =         453.1933             TOTAL OUT =          47.1932

            IN - OUT =      -1.8311E-04              IN - OUT =      -1.5259E-04

 PERCENT DISCREPANCY =          -0.00     PERCENT DISCREPANCY =          -0.00






         TIME SUMMARY AT END OF TIME STEP    1 IN STRESS PERIOD    4
                    SECONDS     MINUTES      HOURS       DAYS        YEARS
                    -----------------------------------------------------------
   TIME STEP LENGTH  86400.      1440.0      24.000      1.0000     2.73785E-03
 STRESS PERIOD TIME  86400.      1440.0      24.000      1.0000     2.73785E-03
         TOTAL TIME 3.45600E+05  5760.0      96.000      4.0000     1.09514E-02
1
1
                            STRESS PERIOD NO.    5, LENGTH =   1.000000    
                            -----------------------------------------------

                              NUMBER OF TIME STEPS =     1

                               MULTIPLIER FOR DELT =     1.000

                            INITIAL TIME STEP SIZE =   1.000000    

 REUSING NON-PARAMETER RIVER REACHES FROM LAST STRESS PERIOD

      2 RIVER REACHES

                 RECHARGE =  4.300000E-03
 
 SOLVING FOR HEAD 

 OUTPUT CONTROL FOR STRESS PERIOD    5   TIME STEP    1
    SAVE HEAD FOR ALL LAYERS

 HEAD WILL BE SAVED ON UNIT   51 AT END OF TIME STEP    1, STRESS PERIOD    5
1
  VOLUMETRIC BUDGET FOR ENTIRE MODEL AT END OF TIME STEP    1, STRESS PERIOD   5
  ------------------------------------------------------------------------------

     CUMULATIVE VOLUMES      L**3       RATES FOR THIS TIME STEP      L**3/T
     ------------------                 ------------------------

           IN:                                      IN:
           ---                                      ---
             STORAGE =           4.6456               STORAGE =           1.4525
       CONSTANT HEAD =           0.0000         CONSTANT HEAD =           0.0000
       RIVER LEAKAGE =           0.0000         RIVER LEAKAGE =           0.0000
            RECHARGE =         493.0000              RECHARGE =          43.0000

            TOTAL IN =         497.6456              TOTAL IN =          44.4525

          OUT:                                     OUT:
          ----                                     ----
             STORAGE =         430.5461               STORAGE =          28.7522
       CONSTANT HEAD =          16.3337         CONSTANT HEAD =           3.2814
       RIVER LEAKAGE =          50.7662         RIVER LEAKAGE =          12.4191
            RECHARGE =           0.0000              RECHARGE =           0.0000

           TOTAL OUT =         497.6460             TOTAL OUT =          44.4527

            IN - OUT =      -3.9673E-04              IN - OUT =      -2.1744E-04

 PERCENT DISCREPANCY =          -0.00     PERCENT DISCREPANCY =          -0.00






         TIME SUMMARY AT END OF TIME STEP    1 IN STRESS PERIOD    5
                    SECONDS     MINUTES      HOURS       DAYS        YEARS
                    -----------------------------------------------------------
   TIME STEP LENGTH  86400.      1440.0      24.000      1.0000     2.73785E-03
 STRESS PERIOD TIME  86400.      1440.0      24.000      1.0000     2.73785E-03
         TOTAL TIME 4.32000E+05  7200.0      120.00      5.0000     1.36893E-02
1
1
                            STRESS PERIOD NO.    6, LENGTH =   1.000000    
                            -----------------------------------------------

                              NUMBER OF TIME STEPS =     1

                               MULTIPLIER FOR DELT =     1.000

                            INITIAL TIME STEP SIZE =   1.000000    

 REUSING NON-PARAMETER RIVER REACHES FROM LAST STRESS PERIOD

      2 RIVER REACHES

                 RECHARGE =  9.400000E-03
 
 SOLVING FOR HEAD 

 OUTPUT CONTROL FOR STRESS PERIOD    6   TIME STEP    1
    SAVE HEAD FOR ALL LAYERS

 HEAD WILL BE SAVED ON UNIT   51 AT END OF TIME STEP    1, STRESS PERIOD    6
1
  VOLUMETRIC BUDGET FOR ENTIRE MODEL AT END OF TIME STEP    1, STRESS PERIOD   6
  ------------------------------------------------------------------------------

     CUMULATIVE VOLUMES      L**3       RATES FOR THIS TIME STEP      L**3/T
     ------------------                 ------------------------

           IN:                                      IN:
           ---                                      ---
             STORAGE =           4.6456               STORAGE =           0.0000
       CONSTANT HEAD =           0.0000         CONSTANT HEAD =           0.0000
       RIVER LEAKAGE =           0.0000         RIVER LEAKAGE =           0.0000
            RECHARGE =         587.0000              RECHARGE =          94.0000

            TOTAL IN =         591.6456              TOTAL IN =          94.0000

          OUT:                                     OUT:
          ----                                     ----
             STORAGE =         507.4460               STORAGE =          76.8999
       CONSTANT HEAD =          19.6227         CONSTANT HEAD =           3.2890
       RIVER LEAKAGE =          64.5771         RIVER LEAKAGE =          13.8109
            RECHARGE =           0.0000              RECHARGE =           0.0000

           TOTAL OUT =         591.6458             TOTAL OUT =          93.9999

            IN - OUT =      -2.4414E-04              IN - OUT =       1.4496E-04

 PERCENT DISCREPANCY =          -0.00     PERCENT DISCREPANCY =           0.00






         TIME SUMMARY AT END OF TIME STEP    1 IN STRESS PERIOD    6
                    SECONDS     MINUTES      HOURS       DAYS        YEARS
                    -----------------------------------------------------------
   TIME STEP LENGTH  86400.      1440.0      24.000      1.0000     2.73785E-03
 STRESS PERIOD TIME  86400.      1440.0      24.000      1.0000     2.73785E-03
         TOTAL TIME 5.18400E+05  8640.0      144.00      6.0000     1.64271E-02
1
1
                            STRESS PERIOD NO.    7, LENGTH =   1.000000    
                            -----------------------------------------------

                              NUMBER OF TIME STEPS =     1

                               MULTIPLIER FOR DELT =     1.000

                            INITIAL TIME STEP SIZE =   1.000000    

 REUSING NON-PARAMETER RIVER REACHES FROM LAST STRESS PERIOD

      2 RIVER REACHES

                 RECHARGE =  4.000000E-04
 
 SOLVING FOR HEAD 

 OUTPUT CONTROL FOR STRESS PERIOD    7   TIME STEP    1
    SAVE HEAD FOR ALL LAYERS

 HEAD WILL BE SAVED ON UNIT   51 AT END OF TIME STEP    1, STRESS PERIOD    7
1
  VOLUMETRIC BUDGET FOR ENTIRE MODEL AT END OF TIME STEP    1, STRESS PERIOD   7
  ------------------------------------------------------------------------------

     CUMULATIVE VOLUMES      L**3       RATES FOR THIS TIME STEP      L**3/T
     ------------------                 ------------------------

           IN:                                      IN:
           ---                                      ---
             STORAGE =          15.8388               STORAGE =          11.1933
       CONSTANT HEAD =           0.0000         CONSTANT HEAD =           0.0000
       RIVER LEAKAGE =           0.0000         RIVER LEAKAGE =           0.0000
            RECHARGE =         591.0000              RECHARGE =           4.0000

            TOTAL IN =         606.8389              TOTAL IN =          15.1933

          OUT:                                     OUT:
          ----                                     ----
             STORAGE =         507.7326               STORAGE =           0.2866
       CONSTANT HEAD =          22.9169         CONSTANT HEAD =           3.2941
       RIVER LEAKAGE =          76.1898         RIVER LEAKAGE =          11.6127
            RECHARGE =           0.0000              RECHARGE =           0.0000

           TOTAL OUT =         606.8393             TOTAL OUT =          15.1934

            IN - OUT =      -4.2725E-04              IN - OUT =      -1.7548E-04

 PERCENT DISCREPANCY =          -0.00     PERCENT DISCREPANCY =          -0.00






         TIME SUMMARY AT END OF TIME STEP    1 IN STRESS PERIOD    7
                    SECONDS     MINUTES      HOURS       DAYS        YEARS
                    -----------------------------------------------------------
   TIME STEP LENGTH  86400.      1440.0      24.000      1.0000     2.73785E-03
 STRESS PERIOD TIME  86400.      1440.0      24.000      1.0000     2.73785E-03
         TOTAL TIME 6.04800E+05  10080.      168.00      7.0000     1.91650E-02
1
1
                            STRESS PERIOD NO.    8, LENGTH =   1.000000    
                            -----------------------------------------------

                              NUMBER OF TIME STEPS =     1

                               MULTIPLIER FOR DELT =     1.000

                            INITIAL TIME STEP SIZE =   1.000000    

 REUSING NON-PARAMETER RIVER REACHES FROM LAST STRESS PERIOD

      2 RIVER REACHES

                 RECHARGE =  2.500000E-03
 
 SOLVING FOR HEAD 

 OUTPUT CONTROL FOR STRESS PERIOD    8   TIME STEP    1
    SAVE HEAD FOR ALL LAYERS

 HEAD WILL BE SAVED ON UNIT   51 AT END OF TIME STEP    1, STRESS PERIOD    8
1
  VOLUMETRIC BUDGET FOR ENTIRE MODEL AT END OF TIME STEP    1, STRESS PERIOD   8
  ------------------------------------------------------------------------------

     CUMULATIVE VOLUMES      L**3       RATES FOR THIS TIME STEP      L**3/T
     ------------------                 ------------------------

           IN:                                      IN:
           ---                                      ---
             STORAGE =          17.6103               STORAGE =           1.7715
       CONSTANT HEAD =           0.0000         CONSTANT HEAD =           0.0000
       RIVER LEAKAGE =           0.0000         RIVER LEAKAGE =           0.0000
            RECHARGE =         616.0000              RECHARGE =          25.0000

            TOTAL IN =         633.6104              TOTAL IN =          26.7715

          OUT:                                     OUT:
          ----                                     ----
             STORAGE =         519.9803               STORAGE =          12.2477
       CONSTANT HEAD =          26.2160         CONSTANT HEAD =           3.2992
       RIVER LEAKAGE =          87.4146         RIVER LEAKAGE =          11.2247
            RECHARGE =           0.0000              RECHARGE =           0.0000

           TOTAL OUT =         633.6109             TOTAL OUT =          26.7716

            IN - OUT =      -5.4932E-04              IN - OUT =      -1.0109E-04

 PERCENT DISCREPANCY =          -0.00     PERCENT DISCREPANCY =          -0.00






         TIME SUMMARY AT END OF TIME STEP    1 IN STRESS PERIOD    8
                    SECONDS     MINUTES      HOURS       DAYS        YEARS
                    -----------------------------------------------------------
   TIME STEP LENGTH  86400.      1440.0      24.000      1.0000     2.73785E-03
 STRESS PERIOD TIME  86400.      1440.0      24.000      1.0000     2.73785E-03
         TOTAL TIME 6.91200E+05  11520.      192.00      8.0000     2.19028E-02
1
1
                            STRESS PERIOD NO.    9, LENGTH =   1.000000    
                            -----------------------------------------------

                              NUMBER OF TIME STEPS =     1

                               MULTIPLIER FOR DELT =     1.000

                            INITIAL TIME STEP SIZE =   1.000000    

 REUSING NON-PARAMETER RIVER REACHES FROM LAST STRESS PERIOD

      2 RIVER REACHES

                 RECHARGE = -2.000000E-04
 
 SOLVING FOR HEAD 

 OUTPUT CONTROL FOR STRESS PERIOD    9   TIME STEP    1
    SAVE HEAD FOR ALL LAYERS

 HEAD WILL BE SAVED ON UNIT   51 AT END OF TIME STEP    1, STRESS PERIOD    9
1
  VOLUMETRIC BUDGET FOR ENTIRE MODEL AT END OF TIME STEP    1, STRESS PERIOD   9
  ------------------------------------------------------------------------------

     CUMULATIVE VOLUMES      L**3       RATES FOR THIS TIME STEP      L**3/T
     ------------------                 ------------------------

           IN:                                      IN:
           ---                                      ---
             STORAGE =          33.1708               STORAGE =          15.5605
       CONSTANT HEAD =           0.0000         CONSTANT HEAD =           0.0000
       RIVER LEAKAGE =           0.0000         RIVER LEAKAGE =           0.0000
            RECHARGE =         616.0000              RECHARGE =           0.0000

            TOTAL IN =         649.1708              TOTAL IN =          15.5605

          OUT:                                     OUT:
          ----                                     ----
             STORAGE =         520.2540               STORAGE =           0.2737
       CONSTANT HEAD =          29.5191         CONSTANT HEAD =           3.3030
       RIVER LEAKAGE =          97.3984         RIVER LEAKAGE =           9.9838
            RECHARGE =           2.0000              RECHARGE =           2.0000

           TOTAL OUT =         649.1714             TOTAL OUT =          15.5606

            IN - OUT =      -6.7139E-04              IN - OUT =      -1.4114E-04

 PERCENT DISCREPANCY =          -0.00     PERCENT DISCREPANCY =          -0.00






         TIME SUMMARY AT END OF TIME STEP    1 IN STRESS PERIOD    9
                    SECONDS     MINUTES      HOURS       DAYS        YEARS
                    -----------------------------------------------------------
   TIME STEP LENGTH  86400.      1440.0      24.000      1.0000     2.73785E-03
 STRESS PERIOD TIME  86400.      1440.0      24.000      1.0000     2.73785E-03
         TOTAL TIME 7.77600E+05  12960.      216.00      9.0000     2.46407E-02
1
1
                            STRESS PERIOD NO.   10, LENGTH =   1.000000    
                            -----------------------------------------------

                              NUMBER OF TIME STEPS =     1

                               MULTIPLIER FOR DELT =     1.000

                            INITIAL TIME STEP SIZE =   1.000000    

 REUSING NON-PARAMETER RIVER REACHES FROM LAST STRESS PERIOD

      2 RIVER REACHES

                 RECHARGE = -5.000000E-04
 
 SOLVING FOR HEAD 

 OUTPUT CONTROL FOR STRESS PERIOD   10   TIME STEP    1
    SAVE HEAD FOR ALL LAYERS

 HEAD WILL BE SAVED ON UNIT   51 AT END OF TIME STEP    1, STRESS PERIOD   10
1
  VOLUMETRIC BUDGET FOR ENTIRE MODEL AT END OF TIME STEP    1, STRESS PERIOD  10
  ------------------------------------------------------------------------------

     CUMULATIVE VOLUMES      L**3       RATES FOR THIS TIME STEP      L**3/T
     ------------------                 ------------------------

           IN:                                      IN:
           ---                                      ---
             STORAGE =          50.8200               STORAGE =          17.6492
       CONSTANT HEAD =           0.0000         CONSTANT HEAD =           0.0000
       RIVER LEAKAGE =           0.0000         RIVER LEAKAGE =           0.0000
            RECHARGE =         616.0000              RECHARGE =           0.0000

            TOTAL IN =         666.8199              TOTAL IN =          17.6492

          OUT:                                     OUT:
          ----                                     ----
             STORAGE =         520.5126               STORAGE =           0.2586
       CONSTANT HEAD =          32.8253         CONSTANT HEAD =           3.3062
       RIVER LEAKAGE =         106.4826         RIVER LEAKAGE =           9.0842
            RECHARGE =           7.0000              RECHARGE =           5.0000

           TOTAL OUT =         666.8206             TOTAL OUT =          17.6491

            IN - OUT =      -6.1035E-04              IN - OUT =       1.0872E-04

 PERCENT DISCREPANCY =          -0.00     PERCENT DISCREPANCY =           0.00






         TIME SUMMARY AT END OF TIME STEP    1 IN STRESS PERIOD   10
                    SECONDS     MINUTES      HOURS       DAYS        YEARS
                    -----------------------------------------------------------
   TIME STEP LENGTH  86400.      1440.0      24.000      1.0000     2.73785E-03
 STRESS PERIOD TIME  86400.      1440.0      24.000      1.0000     2.73785E-03
         TOTAL TIME 8.64000E+05  14400.      240.00      10.000     2.73785E-02
1
1
                            STRESS PERIOD NO.   11, LENGTH =   1.000000    
                            -----------------------------------------------

                              NUMBER OF TIME STEPS =     1

                               MULTIPLIER FOR DELT =     1.000

                            INITIAL TIME STEP SIZE =   1.000000    

 REUSING NON-PARAMETER RIVER REACHES FROM LAST STRESS PERIOD

      2 RIVER REACHES

                 RECHARGE = -4.000000E-04
 
 SOLVING FOR HEAD 

 OUTPUT CONTROL FOR STRESS PERIOD   11   TIME STEP    1
    SAVE HEAD FOR ALL LAYERS

 HEAD WILL BE SAVED ON UNIT   51 AT END OF TIME STEP    1, STRESS PERIOD   11
1
  VOLUMETRIC BUDGET FOR ENTIRE MODEL AT END OF TIME STEP    1, STRESS PERIOD  11
  ------------------------------------------------------------------------------

     CUMULATIVE VOLUMES      L**3       RATES FOR THIS TIME STEP      L**3/T
     ------------------                 ------------------------

           IN:                                      IN:
           ---                                      ---
             STORAGE =          66.8296               STORAGE =          16.0096
       CONSTANT HEAD =           0.0000         CONSTANT HEAD =           0.0000
       RIVER LEAKAGE =           0.0000         RIVER LEAKAGE =           0.0000
            RECHARGE =         616.0000              RECHARGE =           0.0000

            TOTAL IN =         682.8296              TOTAL IN =          16.0096

          OUT:                                     OUT:
          ----                                     ----
             STORAGE =         520.7576               STORAGE =           0.2450
       CONSTANT HEAD =          36.1343         CONSTANT HEAD =           3.3090
       RIVER LEAKAGE =         114.9381         RIVER LEAKAGE =           8.4555
            RECHARGE =          11.0000              RECHARGE =           4.0000

           TOTAL OUT =         682.8301             TOTAL OUT =          16.0095

            IN - OUT =      -4.8828E-04              IN - OUT =       1.4687E-04

 PERCENT DISCREPANCY =          -0.00     PERCENT DISCREPANCY =           0.00






         TIME SUMMARY AT END OF TIME STEP    1 IN STRESS PERIOD   11
                    SECONDS     MINUTES      HOURS       DAYS        YEARS
                    -----------------------------------------------------------
   TIME STEP LENGTH  86400.      1440.0      24.000      1.0000     2.73785E-03
 STRESS PERIOD TIME  86400.      1440.0      24.000      1.0000     2.73785E-03
         TOTAL TIME 9.50400E+05  15840.      264.00      11.000     3.01164E-02
1
1
                            STRESS PERIOD NO.   12, LENGTH =   1.000000    
                            -----------------------------------------------

                              NUMBER OF TIME STEPS =     1

                               MULTIPLIER FOR DELT =     1.000

                            INITIAL TIME STEP SIZE =   1.000000    

 REUSING NON-PARAMETER RIVER REACHES FROM LAST STRESS PERIOD

      2 RIVER REACHES

                 RECHARGE = -2.000000E-04
 
 SOLVING FOR HEAD 

 OUTPUT CONTROL FOR STRESS PERIOD   12   TIME STEP    1
    SAVE HEAD FOR ALL LAYERS

 HEAD WILL BE SAVED ON UNIT   51 AT END OF TIME STEP    1, STRESS PERIOD   12
1
  VOLUMETRIC BUDGET FOR ENTIRE MODEL AT END OF TIME STEP    1, STRESS PERIOD  12
  ------------------------------------------------------------------------------

     CUMULATIVE VOLUMES      L**3       RATES FOR THIS TIME STEP      L**3/T
     ------------------                 ------------------------

           IN:                                      IN:
           ---                                      ---
             STORAGE =          80.3888               STORAGE =          13.5592
       CONSTANT HEAD =           0.0000         CONSTANT HEAD =           0.0000
       RIVER LEAKAGE =           0.0000         RIVER LEAKAGE =           0.0000
            RECHARGE =         616.0000              RECHARGE =           0.0000

            TOTAL IN =         696.3888              TOTAL IN =          13.5592

          OUT:                                     OUT:
          ----                                     ----
             STORAGE =         520.9908               STORAGE =           0.2332
       CONSTANT HEAD =          39.4459         CONSTANT HEAD =           3.3116
       RIVER LEAKAGE =         122.9526         RIVER LEAKAGE =           8.0145
            RECHARGE =          13.0000              RECHARGE =           2.0000

           TOTAL OUT =         696.3893             TOTAL OUT =          13.5593

            IN - OUT =      -4.8828E-04              IN - OUT =      -1.1063E-04

 PERCENT DISCREPANCY =          -0.00     PERCENT DISCREPANCY =          -0.00






         TIME SUMMARY AT END OF TIME STEP    1 IN STRESS PERIOD   12
                    SECONDS     MINUTES      HOURS       DAYS        YEARS
                    -----------------------------------------------------------
   TIME STEP LENGTH  86400.      1440.0      24.000      1.0000     2.73785E-03
 STRESS PERIOD TIME  86400.      1440.0      24.000      1.0000     2.73785E-03
         TOTAL TIME 1.03680E+06  17280.      288.00      12.000     3.28542E-02
1
1
                            STRESS PERIOD NO.   13, LENGTH =   1.000000    
                            -----------------------------------------------

                              NUMBER OF TIME STEPS =     1

                               MULTIPLIER FOR DELT =     1.000

                            INITIAL TIME STEP SIZE =   1.000000    

 REUSING NON-PARAMETER RIVER REACHES FROM LAST STRESS PERIOD

      2 RIVER REACHES

                 RECHARGE =  2.500000E-03
 
 SOLVING FOR HEAD 

 OUTPUT CONTROL FOR STRESS PERIOD   13   TIME STEP    1
    SAVE HEAD FOR ALL LAYERS

 HEAD WILL BE SAVED ON UNIT   51 AT END OF TIME STEP    1, STRESS PERIOD   13
1
  VOLUMETRIC BUDGET FOR ENTIRE MODEL AT END OF TIME STEP    1, STRESS PERIOD  13
  ------------------------------------------------------------------------------

     CUMULATIVE VOLUMES      L**3       RATES FOR THIS TIME STEP      L**3/T
     ------------------                 ------------------------

           IN:                                      IN:
           ---                                      ---
             STORAGE =          80.3888               STORAGE =           0.0000
       CONSTANT HEAD =           0.0000         CONSTANT HEAD =           0.0000
       RIVER LEAKAGE =           0.0000         RIVER LEAKAGE =           0.0000
            RECHARGE =         641.0000              RECHARGE =          25.0000

            TOTAL IN =         721.3888              TOTAL IN =          25.0000

          OUT:                                     OUT:
          ----                                     ----
             STORAGE =         534.0955               STORAGE =          13.1046
       CONSTANT HEAD =          42.7606         CONSTANT HEAD =           3.3148
       RIVER LEAKAGE =         131.5333         RIVER LEAKAGE =           8.5807
            RECHARGE =          13.0000              RECHARGE =           0.0000

           TOTAL OUT =         721.3894             TOTAL OUT =          25.0001

            IN - OUT =      -6.1035E-04              IN - OUT =      -1.0109E-04

 PERCENT DISCREPANCY =          -0.00     PERCENT DISCREPANCY =          -0.00






         TIME SUMMARY AT END OF TIME STEP    1 IN STRESS PERIOD   13
                    SECONDS     MINUTES      HOURS       DAYS        YEARS
                    -----------------------------------------------------------
   TIME STEP LENGTH  86400.      1440.0      24.000      1.0000     2.73785E-03
 STRESS PERIOD TIME  86400.      1440.0      24.000      1.0000     2.73785E-03
         TOTAL TIME 1.12320E+06  18720.      312.00      13.000     3.55921E-02
1
1
                            STRESS PERIOD NO.   14, LENGTH =   1.000000    
                            -----------------------------------------------

                              NUMBER OF TIME STEPS =     1

                               MULTIPLIER FOR DELT =     1.000

                            INITIAL TIME STEP SIZE =   1.000000    

 REUSING NON-PARAMETER RIVER REACHES FROM LAST STRESS PERIOD

      2 RIVER REACHES

                 RECHARGE = -2.000000E-04
 
 SOLVING FOR HEAD 

 OUTPUT CONTROL FOR STRESS PERIOD   14   TIME STEP    1
    SAVE HEAD FOR ALL LAYERS

 HEAD WILL BE SAVED ON UNIT   51 AT END OF TIME STEP    1, STRESS PERIOD   14
1
  VOLUMETRIC BUDGET FOR ENTIRE MODEL AT END OF TIME STEP    1, STRESS PERIOD  14
  ------------------------------------------------------------------------------

     CUMULATIVE VOLUMES      L**3       RATES FOR THIS TIME STEP      L**3/T
     ------------------                 ------------------------

           IN:                                      IN:
           ---                                      ---
             STORAGE =          93.8202               STORAGE =          13.4314
       CONSTANT HEAD =           0.0000         CONSTANT HEAD =           0.0000
       RIVER LEAKAGE =           0.0000         RIVER LEAKAGE =           0.0000
            RECHARGE =         641.0000              RECHARGE =           0.0000

            TOTAL IN =         734.8202              TOTAL IN =          13.4314

          OUT:                                     OUT:
          ----                                     ----
             STORAGE =         534.3223               STORAGE =           0.2269
       CONSTANT HEAD =          46.0779         CONSTANT HEAD =           3.3172
       RIVER LEAKAGE =         139.4208         RIVER LEAKAGE =           7.8874
            RECHARGE =          15.0000              RECHARGE =           2.0000

           TOTAL OUT =         734.8210             TOTAL OUT =          13.4316

            IN - OUT =      -7.9346E-04              IN - OUT =      -1.2970E-04

 PERCENT DISCREPANCY =          -0.00     PERCENT DISCREPANCY =          -0.00






         TIME SUMMARY AT END OF TIME STEP    1 IN STRESS PERIOD   14
                    SECONDS     MINUTES      HOURS       DAYS        YEARS
                    -----------------------------------------------------------
   TIME STEP LENGTH  86400.      1440.0      24.000      1.0000     2.73785E-03
 STRESS PERIOD TIME  86400.      1440.0      24.000      1.0000     2.73785E-03
         TOTAL TIME 1.20960E+06  20160.      336.00      14.000     3.83299E-02
1
1
                            STRESS PERIOD NO.   15, LENGTH =   1.000000    
                            -----------------------------------------------

                              NUMBER OF TIME STEPS =     1

                               MULTIPLIER FOR DELT =     1.000

                            INITIAL TIME STEP SIZE =   1.000000    

 REUSING NON-PARAMETER RIVER REACHES FROM LAST STRESS PERIOD

      2 RIVER REACHES

                 RECHARGE = -1.000000E-04
 
 SOLVING FOR HEAD 

 OUTPUT CONTROL FOR STRESS PERIOD   15   TIME STEP    1
    SAVE HEAD FOR ALL LAYERS

 HEAD WILL BE SAVED ON UNIT   51 AT END OF TIME STEP    1, STRESS PERIOD   15
1
  VOLUMETRIC BUDGET FOR ENTIRE MODEL AT END OF TIME STEP    1, STRESS PERIOD  15
  ------------------------------------------------------------------------------

     CUMULATIVE VOLUMES      L**3       RATES FOR THIS TIME STEP      L**3/T
     ------------------                 ------------------------

           IN:                                      IN:
           ---                                      ---
             STORAGE =         105.8470               STORAGE =          12.0268
       CONSTANT HEAD =           0.0000         CONSTANT HEAD =           0.0000
       RIVER LEAKAGE =           0.0000         RIVER LEAKAGE =           0.0000
            RECHARGE =         641.0000              RECHARGE =           0.0000

            TOTAL IN =         746.8470              TOTAL IN =          12.0268

          OUT:                                     OUT:
          ----                                     ----
             STORAGE =         534.5388               STORAGE =           0.2165
       CONSTANT HEAD =          49.3973         CONSTANT HEAD =           3.3194
       RIVER LEAKAGE =         146.9117         RIVER LEAKAGE =           7.4909
            RECHARGE =          16.0000              RECHARGE =           1.0000

           TOTAL OUT =         746.8478             TOTAL OUT =          12.0268

            IN - OUT =      -7.9346E-04              IN - OUT =      -1.8120E-05

 PERCENT DISCREPANCY =          -0.00     PERCENT DISCREPANCY =          -0.00






         TIME SUMMARY AT END OF TIME STEP    1 IN STRESS PERIOD   15
                    SECONDS     MINUTES      HOURS       DAYS        YEARS
                    -----------------------------------------------------------
   TIME STEP LENGTH  86400.      1440.0      24.000      1.0000     2.73785E-03
 STRESS PERIOD TIME  86400.      1440.0      24.000      1.0000     2.73785E-03
         TOTAL TIME 1.29600E+06  21600.      360.00      15.000     4.10678E-02
1
1
                            STRESS PERIOD NO.   16, LENGTH =   1.000000    
                            -----------------------------------------------

                              NUMBER OF TIME STEPS =     1

                               MULTIPLIER FOR DELT =     1.000

                            INITIAL TIME STEP SIZE =   1.000000    

 REUSING NON-PARAMETER RIVER REACHES FROM LAST STRESS PERIOD

      2 RIVER REACHES

                 RECHARGE = -1.000000E-04
 
 SOLVING FOR HEAD 

 OUTPUT CONTROL FOR STRESS PERIOD   16   TIME STEP    1
    SAVE HEAD FOR ALL LAYERS

 HEAD WILL BE SAVED ON UNIT   51 AT END OF TIME STEP    1, STRESS PERIOD   16
1
  VOLUMETRIC BUDGET FOR ENTIRE MODEL AT END OF TIME STEP    1, STRESS PERIOD  16
  ------------------------------------------------------------------------------

     CUMULATIVE VOLUMES      L**3       RATES FOR THIS TIME STEP      L**3/T
     ------------------                 ------------------------

           IN:                                      IN:
           ---                                      ---
             STORAGE =         117.5485               STORAGE =          11.7015
       CONSTANT HEAD =           0.0000         CONSTANT HEAD =           0.0000
       RIVER LEAKAGE =           0.0000         RIVER LEAKAGE =           0.0000
            RECHARGE =         641.0000              RECHARGE =           0.0000

            TOTAL IN =         758.5485              TOTAL IN =          11.7015

          OUT:                                     OUT:
          ----                                     ----
             STORAGE =         534.7454               STORAGE =           0.2066
       CONSTANT HEAD =          52.7187         CONSTANT HEAD =           3.3214
       RIVER LEAKAGE =         154.0852         RIVER LEAKAGE =           7.1735
            RECHARGE =          17.0000              RECHARGE =           1.0000

           TOTAL OUT =         758.5494             TOTAL OUT =          11.7015

            IN - OUT =      -9.1553E-04              IN - OUT =      -4.8637E-05

 PERCENT DISCREPANCY =          -0.00     PERCENT DISCREPANCY =          -0.00






         TIME SUMMARY AT END OF TIME STEP    1 IN STRESS PERIOD   16
                    SECONDS     MINUTES      HOURS       DAYS        YEARS
                    -----------------------------------------------------------
   TIME STEP LENGTH  86400.      1440.0      24.000      1.0000     2.73785E-03
 STRESS PERIOD TIME  86400.      1440.0      24.000      1.0000     2.73785E-03
         TOTAL TIME 1.38240E+06  23040.      384.00      16.000     4.38056E-02
1
1
                            STRESS PERIOD NO.   17, LENGTH =   1.000000    
                            -----------------------------------------------

                              NUMBER OF TIME STEPS =     1

                               MULTIPLIER FOR DELT =     1.000

                            INITIAL TIME STEP SIZE =   1.000000    

 REUSING NON-PARAMETER RIVER REACHES FROM LAST STRESS PERIOD

      2 RIVER REACHES

                 RECHARGE = -4.000000E-04
 
 SOLVING FOR HEAD 

 OUTPUT CONTROL FOR STRESS PERIOD   17   TIME STEP    1
    SAVE HEAD FOR ALL LAYERS

 HEAD WILL BE SAVED ON UNIT   51 AT END OF TIME STEP    1, STRESS PERIOD   17
1
  VOLUMETRIC BUDGET FOR ENTIRE MODEL AT END OF TIME STEP    1, STRESS PERIOD  17
  ------------------------------------------------------------------------------

     CUMULATIVE VOLUMES      L**3       RATES FOR THIS TIME STEP      L**3/T
     ------------------                 ------------------------

           IN:                                      IN:
           ---                                      ---
             STORAGE =         131.8637               STORAGE =          14.3152
       CONSTANT HEAD =           0.0000         CONSTANT HEAD =           0.0000
       RIVER LEAKAGE =           0.0000         RIVER LEAKAGE =           0.0000
            RECHARGE =         641.0000              RECHARGE =           0.0000

            TOTAL IN =         772.8637              TOTAL IN =          14.3152

          OUT:                                     OUT:
          ----                                     ----
             STORAGE =         534.9406               STORAGE =           0.1952
       CONSTANT HEAD =          56.0419         CONSTANT HEAD =           3.3231
       RIVER LEAKAGE =         160.8819         RIVER LEAKAGE =           6.7967
            RECHARGE =          21.0000              RECHARGE =           4.0000

           TOTAL OUT =         772.8644             TOTAL OUT =          14.3150

            IN - OUT =      -6.7139E-04              IN - OUT =       2.0981E-04

 PERCENT DISCREPANCY =          -0.00     PERCENT DISCREPANCY =           0.00






         TIME SUMMARY AT END OF TIME STEP    1 IN STRESS PERIOD   17
                    SECONDS     MINUTES      HOURS       DAYS        YEARS
                    -----------------------------------------------------------
   TIME STEP LENGTH  86400.      1440.0      24.000      1.0000     2.73785E-03
 STRESS PERIOD TIME  86400.      1440.0      24.000      1.0000     2.73785E-03
         TOTAL TIME 1.46880E+06  24480.      408.00      17.000     4.65435E-02
1
1
                            STRESS PERIOD NO.   18, LENGTH =   1.000000    
                            -----------------------------------------------

                              NUMBER OF TIME STEPS =     1

                               MULTIPLIER FOR DELT =     1.000

                            INITIAL TIME STEP SIZE =   1.000000    

 REUSING NON-PARAMETER RIVER REACHES FROM LAST STRESS PERIOD

      2 RIVER REACHES

                 RECHARGE =  1.320000E-02
 
 SOLVING FOR HEAD 

 OUTPUT CONTROL FOR STRESS PERIOD   18   TIME STEP    1
    SAVE HEAD FOR ALL LAYERS

 HEAD WILL BE SAVED ON UNIT   51 AT END OF TIME STEP    1, STRESS PERIOD   18
1
  VOLUMETRIC BUDGET FOR ENTIRE MODEL AT END OF TIME STEP    1, STRESS PERIOD  18
  ------------------------------------------------------------------------------

     CUMULATIVE VOLUMES      L**3       RATES FOR THIS TIME STEP      L**3/T
     ------------------                 ------------------------

           IN:                                      IN:
           ---                                      ---
             STORAGE =         131.8637               STORAGE =           0.0000
       CONSTANT HEAD =           0.0000         CONSTANT HEAD =           0.0000
       RIVER LEAKAGE =           0.0000         RIVER LEAKAGE =           0.0000
            RECHARGE =         773.0000              RECHARGE =         132.0000

            TOTAL IN =         904.8637              TOTAL IN =         132.0000

          OUT:                                     OUT:
          ----                                     ----
             STORAGE =         652.3209               STORAGE =         117.3803
       CONSTANT HEAD =          59.3712         CONSTANT HEAD =           3.3294
       RIVER LEAKAGE =         172.1721         RIVER LEAKAGE =          11.2902
            RECHARGE =          21.0000              RECHARGE =           0.0000

           TOTAL OUT =         904.8643             TOTAL OUT =         131.9999

            IN - OUT =      -5.4932E-04              IN - OUT =       7.6294E-05

 PERCENT DISCREPANCY =          -0.00     PERCENT DISCREPANCY =           0.00






         TIME SUMMARY AT END OF TIME STEP    1 IN STRESS PERIOD   18
                    SECONDS     MINUTES      HOURS       DAYS        YEARS
                    -----------------------------------------------------------
   TIME STEP LENGTH  86400.      1440.0      24.000      1.0000     2.73785E-03
 STRESS PERIOD TIME  86400.      1440.0      24.000      1.0000     2.73785E-03
         TOTAL TIME 1.55520E+06  25920.      432.00      18.000     4.92813E-02
1
1
                            STRESS PERIOD NO.   19, LENGTH =   1.000000    
                            -----------------------------------------------

                              NUMBER OF TIME STEPS =     1

                               MULTIPLIER FOR DELT =     1.000

                            INITIAL TIME STEP SIZE =   1.000000    

 REUSING NON-PARAMETER RIVER REACHES FROM LAST STRESS PERIOD

      2 RIVER REACHES

                 RECHARGE =  7.900000E-03
 
 SOLVING FOR HEAD 

 OUTPUT CONTROL FOR STRESS PERIOD   19   TIME STEP    1
    SAVE HEAD FOR ALL LAYERS

 HEAD WILL BE SAVED ON UNIT   51 AT END OF TIME STEP    1, STRESS PERIOD   19
1
  VOLUMETRIC BUDGET FOR ENTIRE MODEL AT END OF TIME STEP    1, STRESS PERIOD  19
  ------------------------------------------------------------------------------

     CUMULATIVE VOLUMES      L**3       RATES FOR THIS TIME STEP      L**3/T
     ------------------                 ------------------------

           IN:                                      IN:
           ---                                      ---
             STORAGE =         131.8637               STORAGE =           0.0000
       CONSTANT HEAD =           0.0000         CONSTANT HEAD =           0.0000
       RIVER LEAKAGE =           0.0000         RIVER LEAKAGE =           0.0000
            RECHARGE =         852.0000              RECHARGE =          79.0000

            TOTAL IN =         983.8637              TOTAL IN =          79.0000

          OUT:                                     OUT:
          ----                                     ----
             STORAGE =         715.8187               STORAGE =          63.4978
       CONSTANT HEAD =          62.7069         CONSTANT HEAD =           3.3357
       RIVER LEAKAGE =         184.3386         RIVER LEAKAGE =          12.1665
            RECHARGE =          21.0000              RECHARGE =           0.0000

           TOTAL OUT =         983.8643             TOTAL OUT =          79.0000

            IN - OUT =      -5.4932E-04              IN - OUT =      -1.5259E-05

 PERCENT DISCREPANCY =          -0.00     PERCENT DISCREPANCY =          -0.00






         TIME SUMMARY AT END OF TIME STEP    1 IN STRESS PERIOD   19
                    SECONDS     MINUTES      HOURS       DAYS        YEARS
                    -----------------------------------------------------------
   TIME STEP LENGTH  86400.      1440.0      24.000      1.0000     2.73785E-03
 STRESS PERIOD TIME  86400.      1440.0      24.000      1.0000     2.73785E-03
         TOTAL TIME 1.64160E+06  27360.      456.00      19.000     5.20192E-02
1
1
                            STRESS PERIOD NO.   20, LENGTH =   1.000000    
                            -----------------------------------------------

                              NUMBER OF TIME STEPS =     1

                               MULTIPLIER FOR DELT =     1.000

                            INITIAL TIME STEP SIZE =   1.000000    

 REUSING NON-PARAMETER RIVER REACHES FROM LAST STRESS PERIOD

      2 RIVER REACHES

                 RECHARGE =  2.400000E-03
 
 SOLVING FOR HEAD 

 OUTPUT CONTROL FOR STRESS PERIOD   20   TIME STEP    1
    SAVE HEAD FOR ALL LAYERS

 HEAD WILL BE SAVED ON UNIT   51 AT END OF TIME STEP    1, STRESS PERIOD   20
1
  VOLUMETRIC BUDGET FOR ENTIRE MODEL AT END OF TIME STEP    1, STRESS PERIOD  20
  ------------------------------------------------------------------------------

     CUMULATIVE VOLUMES      L**3       RATES FOR THIS TIME STEP      L**3/T
     ------------------                 ------------------------

           IN:                                      IN:
           ---                                      ---
             STORAGE =         133.1618               STORAGE =           1.2981
       CONSTANT HEAD =           0.0000         CONSTANT HEAD =           0.0000
       RIVER LEAKAGE =           0.0000         RIVER LEAKAGE =           0.0000
            RECHARGE =         876.0000              RECHARGE =          24.0000

            TOTAL IN =        1009.1618              TOTAL IN =          25.2981

          OUT:                                     OUT:
          ----                                     ----
             STORAGE =         726.6252               STORAGE =          10.8065
       CONSTANT HEAD =          66.0476         CONSTANT HEAD =           3.3407
       RIVER LEAKAGE =         195.4897         RIVER LEAKAGE =          11.1511
            RECHARGE =          21.0000              RECHARGE =           0.0000

[...]
       RIVER LEAKAGE =        1340.7531         RIVER LEAKAGE =           9.7928
            RECHARGE =        3572.0000              RECHARGE =           0.0000

            TOTAL IN =       10297.6572              TOTAL IN =          16.2084

          OUT:                                     OUT:
          ----                                     ----
             STORAGE =        3175.0613               STORAGE =       4.2701E-03
       CONSTANT HEAD =         892.9355         CONSTANT HEAD =           2.2042
       RIVER LEAKAGE =         872.6589         RIVER LEAKAGE =           0.0000
            RECHARGE =        5357.0000              RECHARGE =          14.0000

           TOTAL OUT =       10297.6562             TOTAL OUT =          16.2084

            IN - OUT =       9.7656E-04              IN - OUT =      -3.2425E-05

 PERCENT DISCREPANCY =           0.00     PERCENT DISCREPANCY =          -0.00






         TIME SUMMARY AT END OF TIME STEP    1 IN STRESS PERIOD  291
                    SECONDS     MINUTES      HOURS       DAYS        YEARS
                    -----------------------------------------------------------
   TIME STEP LENGTH  86400.      1440.0      24.000      1.0000     2.73785E-03
 STRESS PERIOD TIME  86400.      1440.0      24.000      1.0000     2.73785E-03
         TOTAL TIME 2.51424E+07 4.19040E+05  6984.0      291.00     0.79671    
1
1
                            STRESS PERIOD NO.  292, LENGTH =   1.000000    
                            -----------------------------------------------

                              NUMBER OF TIME STEPS =     1

                               MULTIPLIER FOR DELT =     1.000

                            INITIAL TIME STEP SIZE =   1.000000    

 REUSING NON-PARAMETER RIVER REACHES FROM LAST STRESS PERIOD

      2 RIVER REACHES

                 RECHARGE = -1.600000E-03
 
 SOLVING FOR HEAD 

 OUTPUT CONTROL FOR STRESS PERIOD  292   TIME STEP    1
    SAVE HEAD FOR ALL LAYERS

 HEAD WILL BE SAVED ON UNIT   51 AT END OF TIME STEP    1, STRESS PERIOD  292
1
  VOLUMETRIC BUDGET FOR ENTIRE MODEL AT END OF TIME STEP    1, STRESS PERIOD 292
  ------------------------------------------------------------------------------

     CUMULATIVE VOLUMES      L**3       RATES FOR THIS TIME STEP      L**3/T
     ------------------                 ------------------------

           IN:                                      IN:
           ---                                      ---
             STORAGE =        5393.2246               STORAGE =           8.3201
       CONSTANT HEAD =           0.0000         CONSTANT HEAD =           0.0000
       RIVER LEAKAGE =        1350.6326         RIVER LEAKAGE =           9.8795
            RECHARGE =        3572.0000              RECHARGE =           0.0000

            TOTAL IN =       10315.8574              TOTAL IN =          18.1996

          OUT:                                     OUT:
          ----                                     ----
             STORAGE =        3175.0613               STORAGE =           0.0000
       CONSTANT HEAD =         895.1351         CONSTANT HEAD =           2.1996
       RIVER LEAKAGE =         872.6589         RIVER LEAKAGE =           0.0000
            RECHARGE =        5373.0000              RECHARGE =          16.0000

           TOTAL OUT =       10315.8555             TOTAL OUT =          18.1996

            IN - OUT =       1.9531E-03              IN - OUT =       7.6294E-06

 PERCENT DISCREPANCY =           0.00     PERCENT DISCREPANCY =           0.00






         TIME SUMMARY AT END OF TIME STEP    1 IN STRESS PERIOD  292
                    SECONDS     MINUTES      HOURS       DAYS        YEARS
                    -----------------------------------------------------------
   TIME STEP LENGTH  86400.      1440.0      24.000      1.0000     2.73785E-03
 STRESS PERIOD TIME  86400.      1440.0      24.000      1.0000     2.73785E-03
         TOTAL TIME 2.52288E+07 4.20480E+05  7008.0      292.00     0.79945    
1
1
                            STRESS PERIOD NO.  293, LENGTH =   1.000000    
                            -----------------------------------------------

                              NUMBER OF TIME STEPS =     1

                               MULTIPLIER FOR DELT =     1.000

                            INITIAL TIME STEP SIZE =   1.000000    

 REUSING NON-PARAMETER RIVER REACHES FROM LAST STRESS PERIOD

      2 RIVER REACHES

                 RECHARGE = -1.200000E-03
 
 SOLVING FOR HEAD 

 OUTPUT CONTROL FOR STRESS PERIOD  293   TIME STEP    1
    SAVE HEAD FOR ALL LAYERS

 HEAD WILL BE SAVED ON UNIT   51 AT END OF TIME STEP    1, STRESS PERIOD  293
1
  VOLUMETRIC BUDGET FOR ENTIRE MODEL AT END OF TIME STEP    1, STRESS PERIOD 293
  ------------------------------------------------------------------------------

     CUMULATIVE VOLUMES      L**3       RATES FOR THIS TIME STEP      L**3/T
     ------------------                 ------------------------

           IN:                                      IN:
           ---                                      ---
             STORAGE =        5397.6660               STORAGE =           4.4416
       CONSTANT HEAD =           0.0000         CONSTANT HEAD =           0.0000
       RIVER LEAKAGE =        1360.4470         RIVER LEAKAGE =           9.8145
            RECHARGE =        3572.0000              RECHARGE =           0.0000

            TOTAL IN =       10330.1133              TOTAL IN =          14.2561

          OUT:                                     OUT:
          ----                                     ----
             STORAGE =        3175.1223               STORAGE =       6.0957E-02
       CONSTANT HEAD =         897.3301         CONSTANT HEAD =           2.1951
       RIVER LEAKAGE =         872.6589         RIVER LEAKAGE =           0.0000
            RECHARGE =        5385.0000              RECHARGE =          12.0000

           TOTAL OUT =       10330.1113             TOTAL OUT =          14.2560

            IN - OUT =       1.9531E-03              IN - OUT =       7.1526E-05

 PERCENT DISCREPANCY =           0.00     PERCENT DISCREPANCY =           0.00






         TIME SUMMARY AT END OF TIME STEP    1 IN STRESS PERIOD  293
                    SECONDS     MINUTES      HOURS       DAYS        YEARS
                    -----------------------------------------------------------
   TIME STEP LENGTH  86400.      1440.0      24.000      1.0000     2.73785E-03
 STRESS PERIOD TIME  86400.      1440.0      24.000      1.0000     2.73785E-03
         TOTAL TIME 2.53152E+07 4.21920E+05  7032.0      293.00     0.80219    
1
1
                            STRESS PERIOD NO.  294, LENGTH =   1.000000    
                            -----------------------------------------------

                              NUMBER OF TIME STEPS =     1

                               MULTIPLIER FOR DELT =     1.000

                            INITIAL TIME STEP SIZE =   1.000000    

 REUSING NON-PARAMETER RIVER REACHES FROM LAST STRESS PERIOD

      2 RIVER REACHES

                 RECHARGE = -1.275000E-03
 
 SOLVING FOR HEAD 

 OUTPUT CONTROL FOR STRESS PERIOD  294   TIME STEP    1
    SAVE HEAD FOR ALL LAYERS

 HEAD WILL BE SAVED ON UNIT   51 AT END OF TIME STEP    1, STRESS PERIOD  294
1
  VOLUMETRIC BUDGET FOR ENTIRE MODEL AT END OF TIME STEP    1, STRESS PERIOD 294
  ------------------------------------------------------------------------------

     CUMULATIVE VOLUMES      L**3       RATES FOR THIS TIME STEP      L**3/T
     ------------------                 ------------------------

           IN:                                      IN:
           ---                                      ---
             STORAGE =        5402.7837               STORAGE =           5.1176
       CONSTANT HEAD =           0.0000         CONSTANT HEAD =           0.0000
       RIVER LEAKAGE =        1370.2700         RIVER LEAKAGE =           9.8230
            RECHARGE =        3572.0000              RECHARGE =           0.0000

            TOTAL IN =       10345.0537              TOTAL IN =          14.9406

          OUT:                                     OUT:
          ----                                     ----
             STORAGE =        3175.1223               STORAGE =           0.0000
       CONSTANT HEAD =         899.5208         CONSTANT HEAD =           2.1906
       RIVER LEAKAGE =         872.6589         RIVER LEAKAGE =           0.0000
            RECHARGE =        5397.7500              RECHARGE =          12.7500

           TOTAL OUT =       10345.0518             TOTAL OUT =          14.9406

            IN - OUT =       1.9531E-03              IN - OUT =      -6.8665E-05

 PERCENT DISCREPANCY =           0.00     PERCENT DISCREPANCY =          -0.00






         TIME SUMMARY AT END OF TIME STEP    1 IN STRESS PERIOD  294
                    SECONDS     MINUTES      HOURS       DAYS        YEARS
                    -----------------------------------------------------------
   TIME STEP LENGTH  86400.      1440.0      24.000      1.0000     2.73785E-03
 STRESS PERIOD TIME  86400.      1440.0      24.000      1.0000     2.73785E-03
         TOTAL TIME 2.54016E+07 4.23360E+05  7056.0      294.00     0.80493    
1
1
                            STRESS PERIOD NO.  295, LENGTH =   1.000000    
                            -----------------------------------------------

                              NUMBER OF TIME STEPS =     1

                               MULTIPLIER FOR DELT =     1.000

                            INITIAL TIME STEP SIZE =   1.000000    

 REUSING NON-PARAMETER RIVER REACHES FROM LAST STRESS PERIOD

      2 RIVER REACHES

                 RECHARGE = -1.400000E-03
 
 SOLVING FOR HEAD 

 OUTPUT CONTROL FOR STRESS PERIOD  295   TIME STEP    1
    SAVE HEAD FOR ALL LAYERS

 HEAD WILL BE SAVED ON UNIT   51 AT END OF TIME STEP    1, STRESS PERIOD  295
1
  VOLUMETRIC BUDGET FOR ENTIRE MODEL AT END OF TIME STEP    1, STRESS PERIOD 295
  ------------------------------------------------------------------------------

     CUMULATIVE VOLUMES      L**3       RATES FOR THIS TIME STEP      L**3/T
     ------------------                 ------------------------

           IN:                                      IN:
           ---                                      ---
             STORAGE =        5409.0889               STORAGE =           6.3052
       CONSTANT HEAD =           0.0000         CONSTANT HEAD =           0.0000
       RIVER LEAKAGE =        1380.1509         RIVER LEAKAGE =           9.8809
            RECHARGE =        3572.0000              RECHARGE =           0.0000

            TOTAL IN =       10361.2402              TOTAL IN =          16.1861

          OUT:                                     OUT:
          ----                                     ----
             STORAGE =        3175.1223               STORAGE =           0.0000
       CONSTANT HEAD =         901.7070         CONSTANT HEAD =           2.1862
       RIVER LEAKAGE =         872.6589         RIVER LEAKAGE =           0.0000
            RECHARGE =        5411.7500              RECHARGE =          14.0000

           TOTAL OUT =       10361.2383             TOTAL OUT =          16.1862

            IN - OUT =       1.9531E-03              IN - OUT =      -4.7684E-05

 PERCENT DISCREPANCY =           0.00     PERCENT DISCREPANCY =          -0.00






         TIME SUMMARY AT END OF TIME STEP    1 IN STRESS PERIOD  295
                    SECONDS     MINUTES      HOURS       DAYS        YEARS
                    -----------------------------------------------------------
   TIME STEP LENGTH  86400.      1440.0      24.000      1.0000     2.73785E-03
 STRESS PERIOD TIME  86400.      1440.0      24.000      1.0000     2.73785E-03
         TOTAL TIME 2.54880E+07 4.24800E+05  7080.0      295.00     0.80767    
1
1
                            STRESS PERIOD NO.  296, LENGTH =   1.000000    
                            -----------------------------------------------

                              NUMBER OF TIME STEPS =     1

                               MULTIPLIER FOR DELT =     1.000

                            INITIAL TIME STEP SIZE =   1.000000    

 REUSING NON-PARAMETER RIVER REACHES FROM LAST STRESS PERIOD

      2 RIVER REACHES

                 RECHARGE = -9.000000E-04
 
 SOLVING FOR HEAD 

 OUTPUT CONTROL FOR STRESS PERIOD  296   TIME STEP    1
    SAVE HEAD FOR ALL LAYERS

 HEAD WILL BE SAVED ON UNIT   51 AT END OF TIME STEP    1, STRESS PERIOD  296
1
  VOLUMETRIC BUDGET FOR ENTIRE MODEL AT END OF TIME STEP    1, STRESS PERIOD 296
  ------------------------------------------------------------------------------

     CUMULATIVE VOLUMES      L**3       RATES FOR THIS TIME STEP      L**3/T
     ------------------                 ------------------------

           IN:                                      IN:
           ---                                      ---
             STORAGE =        5410.9038               STORAGE =           1.8150
       CONSTANT HEAD =           0.0000         CONSTANT HEAD =           0.0000
       RIVER LEAKAGE =        1389.9061         RIVER LEAKAGE =           9.7552
            RECHARGE =        3572.0000              RECHARGE =           0.0000

            TOTAL IN =       10372.8105              TOTAL IN =          11.5702

          OUT:                                     OUT:
          ----                                     ----
             STORAGE =        3175.5105               STORAGE =           0.3883
       CONSTANT HEAD =         903.8889         CONSTANT HEAD =           2.1819
       RIVER LEAKAGE =         872.6589         RIVER LEAKAGE =           0.0000
            RECHARGE =        5420.7500              RECHARGE =           9.0000

           TOTAL OUT =       10372.8086             TOTAL OUT =          11.5702

            IN - OUT =       1.9531E-03              IN - OUT =       1.9073E-05

 PERCENT DISCREPANCY =           0.00     PERCENT DISCREPANCY =           0.00






         TIME SUMMARY AT END OF TIME STEP    1 IN STRESS PERIOD  296
                    SECONDS     MINUTES      HOURS       DAYS        YEARS
                    -----------------------------------------------------------
   TIME STEP LENGTH  86400.      1440.0      24.000      1.0000     2.73785E-03
 STRESS PERIOD TIME  86400.      1440.0      24.000      1.0000     2.73785E-03
         TOTAL TIME 2.55744E+07 4.26240E+05  7104.0      296.00     0.81040    
1
1
                            STRESS PERIOD NO.  297, LENGTH =   1.000000    
                            -----------------------------------------------

                              NUMBER OF TIME STEPS =     1

                               MULTIPLIER FOR DELT =     1.000

                            INITIAL TIME STEP SIZE =   1.000000    

 REUSING NON-PARAMETER RIVER REACHES FROM LAST STRESS PERIOD

      2 RIVER REACHES

                 RECHARGE = -1.000000E-03
 
 SOLVING FOR HEAD 

 OUTPUT CONTROL FOR STRESS PERIOD  297   TIME STEP    1
    SAVE HEAD FOR ALL LAYERS

 HEAD WILL BE SAVED ON UNIT   51 AT END OF TIME STEP    1, STRESS PERIOD  297
1
  VOLUMETRIC BUDGET FOR ENTIRE MODEL AT END OF TIME STEP    1, STRESS PERIOD 297
  ------------------------------------------------------------------------------

     CUMULATIVE VOLUMES      L**3       RATES FOR THIS TIME STEP      L**3/T
     ------------------                 ------------------------

           IN:                                      IN:
           ---                                      ---
             STORAGE =        5413.4688               STORAGE =           2.5650
       CONSTANT HEAD =           0.0000         CONSTANT HEAD =           0.0000
       RIVER LEAKAGE =        1399.6323         RIVER LEAKAGE =           9.7262
            RECHARGE =        3572.0000              RECHARGE =           0.0000

            TOTAL IN =       10385.1016              TOTAL IN =          12.2912

          OUT:                                     OUT:
          ----                                     ----
             STORAGE =        3175.6240               STORAGE =           0.1134
       CONSTANT HEAD =         906.0667         CONSTANT HEAD =           2.1777
       RIVER LEAKAGE =         872.6589         RIVER LEAKAGE =           0.0000
            RECHARGE =        5430.7500              RECHARGE =          10.0000

           TOTAL OUT =       10385.0996             TOTAL OUT =          12.2912

            IN - OUT =       1.9531E-03              IN - OUT =       1.6212E-05

 PERCENT DISCREPANCY =           0.00     PERCENT DISCREPANCY =           0.00






         TIME SUMMARY AT END OF TIME STEP    1 IN STRESS PERIOD  297
                    SECONDS     MINUTES      HOURS       DAYS        YEARS
                    -----------------------------------------------------------
   TIME STEP LENGTH  86400.      1440.0      24.000      1.0000     2.73785E-03
 STRESS PERIOD TIME  86400.      1440.0      24.000      1.0000     2.73785E-03
         TOTAL TIME 2.56608E+07 4.27680E+05  7128.0      297.00     0.81314    
1
1
                            STRESS PERIOD NO.  298, LENGTH =   1.000000    
                            -----------------------------------------------

                              NUMBER OF TIME STEPS =     1

                               MULTIPLIER FOR DELT =     1.000

                            INITIAL TIME STEP SIZE =   1.000000    

 REUSING NON-PARAMETER RIVER REACHES FROM LAST STRESS PERIOD

      2 RIVER REACHES

                 RECHARGE = -9.000000E-04
 
 SOLVING FOR HEAD 

 OUTPUT CONTROL FOR STRESS PERIOD  298   TIME STEP    1
    SAVE HEAD FOR ALL LAYERS

 HEAD WILL BE SAVED ON UNIT   51 AT END OF TIME STEP    1, STRESS PERIOD  298
1
  VOLUMETRIC BUDGET FOR ENTIRE MODEL AT END OF TIME STEP    1, STRESS PERIOD 298
  ------------------------------------------------------------------------------

     CUMULATIVE VOLUMES      L**3       RATES FOR THIS TIME STEP      L**3/T
     ------------------                 ------------------------

           IN:                                      IN:
           ---                                      ---
             STORAGE =        5415.2236               STORAGE =           1.7548
       CONSTANT HEAD =           0.0000         CONSTANT HEAD =           0.0000
       RIVER LEAKAGE =        1409.3047         RIVER LEAKAGE =           9.6724
            RECHARGE =        3572.0000              RECHARGE =           0.0000

            TOTAL IN =       10396.5283              TOTAL IN =          11.4272

          OUT:                                     OUT:
          ----                                     ----
             STORAGE =        3175.8777               STORAGE =           0.2536
       CONSTANT HEAD =         908.2403         CONSTANT HEAD =           2.1736
       RIVER LEAKAGE =         872.6589         RIVER LEAKAGE =           0.0000
            RECHARGE =        5439.7500              RECHARGE =           9.0000

           TOTAL OUT =       10396.5273             TOTAL OUT =          11.4272

            IN - OUT =       9.7656E-04              IN - OUT =       8.5831E-06

 PERCENT DISCREPANCY =           0.00     PERCENT DISCREPANCY =           0.00






         TIME SUMMARY AT END OF TIME STEP    1 IN STRESS PERIOD  298
                    SECONDS     MINUTES      HOURS       DAYS        YEARS
                    -----------------------------------------------------------
   TIME STEP LENGTH  86400.      1440.0      24.000      1.0000     2.73785E-03
 STRESS PERIOD TIME  86400.      1440.0      24.000      1.0000     2.73785E-03
         TOTAL TIME 2.57472E+07 4.29120E+05  7152.0      298.00     0.81588    
1

 Run end date and time (yyyy/mm/dd hh:mm:ss): 2018/10/26 16:42:05
 Elapsed run time:  0.499 Seconds

